! bt-PNO-EOM-CCSD NOCOSX def2-SVP/C STO-3G NormalPNO TightSCF
%Pal NProcs 4 end
%MaxCore 2500
%SCF
    AutoTRAH    True
    CNVDamp     False
    CNVZerner   False
    end
%mdci
    MaxIter     200
    NRoots      2
    DoTriplet   false
    STEOMSOC    false
    DoDbfilter  false
    end

*xyz 0 1
C            -1.41525000     0.23022000     0.00000000
C             1.41525000    -0.23022000     0.00000000
C            -0.49513000     1.31446000     0.00000000
C             0.49513000    -1.31446000     0.00000000
C             0.88941000     1.09095000     0.00000000
C            -0.88941000    -1.09095000     0.00000000
H            -0.87955000     2.34373000     0.00000000
H             0.87955000    -2.34373000     0.00000000
H             1.57790000     1.94501000     0.00000000
H            -1.57790000    -1.94501000     0.00000000
C             2.88458000    -0.52109000     0.00000000
C            -2.88458000     0.52109000     0.00000000
H             3.14034000    -1.59196000     0.00000000
H            -3.14034000     1.59196000     0.00000000
C             3.88004000     0.38225000     0.00000000
C            -3.88004000    -0.38225000     0.00000000
H             3.69468000     1.46244000     0.00000000
H            -3.69468000    -1.46244000     0.00000000
H             4.93165000     0.07110000     0.00000000
H            -4.93165000    -0.07110000     0.00000000
*